test/IEEE118.m
function mpc = IEEE118
mpc.version = "2";
mpc.baseMVA = 100.0;

%% bus data
%	bus_i type Pd Qd Gs Bs area Vm Va baseKV zone Vmax Vmin
mpc.bus = [
     1  1     0.000     0.000    34.415   -18.220   1  1.0000  0.0000 138.000   1  1.100  0.900;
     2  1     0.000     0.000    13.496    -6.073   1  1.0000  0.0000 138.000   1  1.100  0.900;
     3  1     0.000     0.000    26.317    -6.748   1  1.0000  0.0000 138.000   1  1.100  0.900;
     4  1     0.000     0.000    26.317    -8.098   1  1.0000  0.0000 138.000   1  1.100  0.900;
     5  1     0.000     0.000     0.000   -40.000   1  1.0000  0.0000 138.000   1  1.100  0.900;
     6  1     0.000     0.000    35.090   -14.846   1  1.0000  0.0000 138.000   1  1.100  0.900;
     7  1     0.000     0.000    12.821    -1.350   1  1.0000  0.0000 138.000   1  1.100  0.900;
     8  1     0.000     0.000    18.894     0.000   1  1.0000  0.0000 345.000   1  1.100  0.900;
     9  1     0.000     0.000     0.000     0.000   1  1.0000  0.0000 345.000   1  1.100  0.900;
    10  1     0.000     0.000     0.000     0.000   1  1.0000  0.0000 345.000   1  1.100  0.900;
    11  1     0.000     0.000    47.236   -15.520   1  1.0000  0.0000 138.000   1  1.100  0.900;
    12  1     0.000     0.000    31.716    -6.748   1  1.0000  0.0000 138.000   1  1.100  0.900;
    13  1     0.000     0.000    22.943   -10.797   1  1.0000  0.0000 138.000   1  1.100  0.900;
    14  1     0.000     0.000     9.447    -0.675   1  1.0000  0.0000 138.000   1  1.100  0.900;
    15  1     0.000     0.000    60.732   -20.244   1  1.0000  0.0000 138.000   1  1.100  0.900;
    16  1     0.000     0.000    16.870    -6.748   1  1.0000  0.0000 138.000   1  1.100  0.900;
    17  1     0.000     0.000     7.423    -2.024   1  1.0000  0.0000 138.000   1  1.100  0.900;
    18  1     0.000     0.000    40.488   -22.943   1  1.0000  0.0000 138.000   1  1.100  0.900;
    19  1     0.000     0.000    30.366   -16.870   1  1.0000  0.0000 138.000   1  1.100  0.900;
    20  1     0.000     0.000    12.146    -2.024   1  1.0000  0.0000 138.000   1  1.100  0.900;
    21  1     0.000     0.000     9.447    -5.398   1  1.0000  0.0000 138.000   1  1.100  0.900;
    22  1     0.000     0.000     6.748    -3.374   1  1.0000  0.0000 138.000   1  1.100  0.900;
    23  1     0.000     0.000     4.724    -2.024   1  1.0000  0.0000 138.000   1  1.100  0.900;
    24  1     0.000     0.000     8.772     0.000   1  1.0000  0.0000 138.000   1  1.100  0.900;
    25  1     0.000     0.000     0.000     0.000   1  1.0000  0.0000 138.000   1  1.100  0.900;
    26  1     0.000     0.000     0.000     0.000   1  1.0000  0.0000 345.000   1  1.100  0.900;
    27  1     0.000     0.000    47.911    -8.772   1  1.0000  0.0000 138.000   1  1.100  0.900;
    28  1     0.000     0.000    11.472    -4.724   1  1.0000  0.0000 138.000   1  1.100  0.900;
    29  1     0.000     0.000    16.195    -2.699   1  1.0000  0.0000 138.000   1  1.100  0.900;
    30  1     0.000     0.000     0.000     0.000   1  1.0000  0.0000 345.000   1  1.100  0.900;
    31  1     0.000     0.000    29.016   -18.220   1  1.0000  0.0000 138.000   1  1.100  0.900;
    32  1     0.000     0.000    39.813   -15.520   1  1.0000  0.0000 138.000   1  1.100  0.900;
    33  1     0.000     0.000    15.520    -6.073   1  1.0000  0.0000 138.000   1  1.100  0.900;
    34  1     0.000     0.000    39.813    -3.545   1  1.0000  0.0000 138.000   1  1.100  0.900;
    35  1     0.000     0.000    22.268    -6.073   1  1.0000  0.0000 138.000   1  1.100  0.900;
    36  1     0.000     0.000    20.919   -11.472   1  1.0000  0.0000 138.000   1  1.100  0.900;
    37  1     0.000     0.000     0.000   -25.000   1  1.0000  0.0000 138.000   1  1.100  0.900;
    38  1     0.000     0.000     0.000     0.000   1  1.0000  0.0000 345.000   1  1.100  0.900;
    39  1     0.000     0.000    18.220    -7.423   1  1.0000  0.0000 138.000   1  1.100  0.900;
    40  1     0.000     0.000    44.537   -15.520   1  1.0000  0.0000 138.000   1  1.100  0.900;
    41  1     0.000     0.000    24.968    -6.748   1  1.0000  0.0000 138.000   1  1.100  0.900;
    42  1     0.000     0.000    64.781   -15.520   1  1.0000  0.0000 138.000   1  1.100  0.900;
    43  1     0.000     0.000    12.146    -4.724   1  1.0000  0.0000 138.000   1  1.100  0.900;
    44  1     0.000     0.000    10.797     4.602   1  1.0000  0.0000 138.000   1  1.100  0.900;
    45  1     0.000     0.000    35.764    -4.846   1  1.0000  0.0000 138.000   1  1.100  0.900;
    46  1     0.000     0.000    18.894     3.252   1  1.0000  0.0000 138.000   1  1.100  0.900;
    47  1     0.000     0.000    22.943     0.000   1  1.0000  0.0000 138.000   1  1.100  0.900;
    48  1     0.000     0.000    13.496     7.577   1  1.0000  0.0000 138.000   1  1.100  0.900;
    49  1     0.000     0.000    58.708   -20.244   1  1.0000  0.0000 138.000   1  1.100  0.900;
    50  1     0.000     0.000    11.472    -2.699   1  1.0000  0.0000 138.000   1  1.100  0.900;
    51  1     0.000     0.000    11.472    -5.398   1  1.0000  0.0000 138.000   1  1.100  0.900;
    52  1     0.000     0.000    12.146    -3.374   1  1.0000  0.0000 138.000   1  1.100  0.900;
    53  1     0.000     0.000    15.520    -7.423   1  1.0000  0.0000 138.000   1  1.100  0.900;
    54  1     0.000     0.000    76.252   -21.594   1  1.0000  0.0000 138.000   1  1.100  0.900;
    55  1     0.000     0.000    42.512   -14.846   1  1.0000  0.0000 138.000   1  1.100  0.900;
    56  1     0.000     0.000    56.683   -12.146   1  1.0000  0.0000 138.000   1  1.100  0.900;
    57  1     0.000     0.000     8.098    -2.024   1  1.0000  0.0000 138.000   1  1.100  0.900;
    58  1     0.000     0.000     8.098    -2.024   1  1.0000  0.0000 138.000   1  1.100  0.900;
    59  1     0.000     0.000   186.920   -76.252   1  1.0000  0.0000 138.000   1  1.100  0.900;
    60  1     0.000     0.000    52.634    -2.024   1  1.0000  0.0000 138.000   1  1.100  0.900;
    61  1     0.000     0.000     0.000     0.000   1  1.0000  0.0000 138.000   1  1.100  0.900;
    62  1     0.000     0.000    51.960    -9.447   1  1.0000  0.0000 138.000   1  1.100  0.900;
    63  1     0.000     0.000     0.000     0.000   1  1.0000  0.0000 345.000   1  1.100  0.900;
    64  1     0.000     0.000     0.000     0.000   1  1.0000  0.0000 345.000   1  1.100  0.900;
    65  1     0.000     0.000     0.000     0.000   1  1.0000  0.0000 345.000   1  1.100  0.900;
    66  1     0.000     0.000    26.317   -12.146   1  1.0000  0.0000 138.000   1  1.100  0.900;
    67  1     0.000     0.000    18.894    -4.724   1  1.0000  0.0000 138.000   1  1.100  0.900;
    68  1     0.000     0.000     0.000     0.000   1  1.0000  0.0000 345.000   1  1.100  0.900;
    69  1     0.000     0.000     0.000     0.000   1  1.0000  0.0000 138.000   1  1.100  0.900;
    70  1     0.000     0.000    44.537   -13.496   1  1.0000  0.0000 138.000   1  1.100  0.900;
    71  1     0.000     0.000     0.000     0.000   1  1.0000  0.0000 138.000   1  1.100  0.900;
    72  1     0.000     0.000     8.098     0.000   1  1.0000  0.0000 138.000   1  1.100  0.900;
    73  1     0.000     0.000     4.049     0.000   1  1.0000  0.0000 138.000   1  1.100  0.900;
    74  1     0.000     0.000    45.886    -6.220   1  1.0000  0.0000 138.000   1  1.100  0.900;
    75  1     0.000     0.000    31.716    -7.423   1  1.0000  0.0000 138.000   1  1.100  0.900;
    76  1     0.000     0.000    45.886   -24.293   1  1.0000  0.0000 138.000   1  1.100  0.900;
    77  1     0.000     0.000    41.163   -18.894   1  1.0000  0.0000 138.000   1  1.100  0.900;
    78  1     0.000     0.000    47.911   -17.545   1  1.0000  0.0000 138.000   1  1.100  0.900;
    79  1     0.000     0.000    26.317    -1.594   1  1.0000  0.0000 138.000   1  1.100  0.900;
    80  1     0.000     0.000    87.724   -17.545   1  1.0000  0.0000 138.000   1  1.100  0.900;
    81  1     0.000     0.000     0.000     0.000   1  1.0000  0.0000 345.000   1  1.100  0.900;
    82  1     0.000     0.000    36.439     1.780   1  1.0000  0.0000 138.000   1  1.100  0.900;
    83  1     0.000     0.000    13.496     3.252   1  1.0000  0.0000 138.000   1  1.100  0.900;
    84  1     0.000     0.000     7.423    -4.724   1  1.0000  0.0000 138.000   1  1.100  0.900;
    85  1     0.000     0.000    16.195   -10.122   1  1.0000  0.0000 138.000   1  1.100  0.900;
    86  1     0.000     0.000    14.171    -6.748   1  1.0000  0.0000 138.000   1  1.100  0.900;
    87  1     0.000     0.000     0.000     0.000   1  1.0000  0.0000 138.000   1  1.100  0.900;
    88  1     0.000     0.000    32.390    -6.748   1  1.0000  0.0000 138.000   1  1.100  0.900;
    89  1     0.000     0.000     0.000     0.000   1  1.0000  0.0000 138.000   1  1.100  0.900;
    90  1     0.000     0.000   109.992   -28.342   1  1.0000  0.0000 138.000   1  1.100  0.900;
    91  1     0.000     0.000     6.748     0.000   1  1.0000  0.0000 138.000   1  1.100  0.900;
    92  1     0.000     0.000    43.862    -6.748   1  1.0000  0.0000 138.000   1  1.100  0.900;
    93  1     0.000     0.000     8.098    -4.724   1  1.0000  0.0000 138.000   1  1.100  0.900;
    94  1     0.000     0.000    20.244   -10.797   1  1.0000  0.0000 138.000   1  1.100  0.900;
    95  1     0.000     0.000    28.342   -20.919   1  1.0000  0.0000 138.000   1  1.100  0.900;
    96  1     0.000     0.000    25.642   -10.122   1  1.0000  0.0000 138.000   1  1.100  0.900;
    97  1     0.000     0.000    10.122    -6.073   1  1.0000  0.0000 138.000   1  1.100  0.900;
    98  1     0.000     0.000    22.943    -5.398   1  1.0000  0.0000 138.000   1  1.100  0.900;
    99  1     0.000     0.000    28.342     0.000   1  1.0000  0.0000 138.000   1  1.100  0.900;
   100  1     0.000     0.000    24.968   -12.146   1  1.0000  0.0000 138.000   1  1.100  0.900;
   101  1     0.000     0.000    14.846   -10.122   1  1.0000  0.0000 138.000   1  1.100  0.900;
   102  1     0.000     0.000     3.374    -2.024   1  1.0000  0.0000 138.000   1  1.100  0.900;
   103  1     0.000     0.000    15.520   -10.797   1  1.0000  0.0000 138.000   1  1.100  0.900;
   104  1     0.000     0.000    25.642   -16.870   1  1.0000  0.0000 138.000   1  1.100  0.900;
   105  1     0.000     0.000    20.919     2.455   1  1.0000  0.0000 138.000   1  1.100  0.900;
   106  1     0.000     0.000    29.016   -10.797   1  1.0000  0.0000 138.000   1  1.100  0.900;
   107  1     0.000     0.000    33.740    -2.098   1  1.0000  0.0000 138.000   1  1.100  0.900;
   108  1     0.000     0.000     1.350    -0.675   1  1.0000  0.0000 138.000   1  1.100  0.900;
   109  1     0.000     0.000     5.398    -2.024   1  1.0000  0.0000 138.000   1  1.100  0.900;
   110  1     0.000     0.000    26.317   -14.244   1  1.0000  0.0000 138.000   1  1.100  0.900;
   111  1     0.000     0.000     0.000     0.000   1  1.0000  0.0000 138.000   1  1.100  0.900;
   112  1     0.000     0.000    45.886    -8.772   1  1.0000  0.0000 138.000   1  1.100  0.900;
   113  1     0.000     0.000     4.049     0.000   1  1.0000  0.0000 138.000   1  1.100  0.900;
   114  1     0.000     0.000     5.398    -2.024   1  1.0000  0.0000 138.000   1  1.100  0.900;
   115  1     0.000     0.000    14.846    -4.724   1  1.0000  0.0000 138.000   1  1.100  0.900;
   116  1     0.000     0.000   124.163     0.000   1  1.0000  0.0000 345.000   1  1.100  0.900;
   117  1     0.000     0.000    13.496    -5.398   1  1.0000  0.0000 138.000   1  1.100  0.900;
   118  1     0.000     0.000    22.268   -10.122   1  1.0000  0.0000 138.000   1  1.100  0.900;
   119  2     0.000     0.000     0.000     0.000   1  1.0000  0.0000  13.800   1  1.100  0.900;
   120  2     0.000     0.000     0.000     0.000   1  1.0000  0.0000  13.800   1  1.100  0.900;
   121  2     0.000     0.000     0.000     0.000   1  1.0000  0.0000  13.800   1  1.100  0.900;
   122  2     0.000     0.000     0.000     0.000   1  1.0000  0.0000  13.800   1  1.100  0.900;
   123  2     0.000     0.000     0.000     0.000   1  1.0000  0.0000  13.800   1  1.100  0.900;
   124  2     0.000     0.000     0.000     0.000   1  1.0000  0.0000  13.800   1  1.100  0.900;
   125  2     0.000     0.000     0.000     0.000   1  1.0000  0.0000  13.800   1  1.100  0.900;
   126  2     0.000     0.000     0.000     0.000   1  1.0000  0.0000  13.800   1  1.100  0.900;
   127  2     0.000     0.000     0.000     0.000   1  1.0000  0.0000  13.800   1  1.100  0.900;
   128  2     0.000     0.000     0.000     0.000   1  1.0000  0.0000  13.800   1  1.100  0.900;
   129  2     0.000     0.000     0.000     0.000   1  1.0000  0.0000  13.800   1  1.100  0.900;
   130  2     0.000     0.000     0.000     0.000   1  1.0000  0.0000  13.800   1  1.100  0.900;
   131  3     0.000     0.000     0.000     0.000   1  1.0000  0.0000  13.800   1  1.100  0.900;
   132  2     0.000     0.000     0.000     0.000   1  1.0000  0.0000  13.800   1  1.100  0.900;
   133  2     0.000     0.000     0.000     0.000   1  1.0000  0.0000  13.800   1  1.100  0.900;
   134  2     0.000     0.000     0.000     0.000   1  1.0000  0.0000  13.800   1  1.100  0.900;
   135  2     0.000     0.000     0.000     0.000   1  1.0000  0.0000  13.800   1  1.100  0.900;
   136  2     0.000     0.000     0.000     0.000   1  1.0000  0.0000  13.800   1  1.100  0.900;
   137  2     0.000     0.000     0.000     0.000   1  1.0000  0.0000  13.800   1  1.100  0.900;
   138  2     0.000     0.000     0.000     0.000   1  1.0000  0.0000  13.800   1  1.100  0.900;
   139  2     0.000     0.000     0.000     0.000   1  1.0000  0.0000  13.800   1  1.100  0.900;
   140  2     0.000     0.000     0.000     0.000   1  1.0000  0.0000  13.800   1  1.100  0.900;
   141  2     0.000     0.000     0.000     0.000   1  1.0000  0.0000  13.800   1  1.100  0.900;
   142  2     0.000     0.000     0.000     0.000   1  1.0000  0.0000  13.800   1  1.100  0.900;
   143  2     0.000     0.000     0.000     0.000   1  1.0000  0.0000  13.800   1  1.100  0.900;
   144  2     0.000     0.000     0.000     0.000   1  1.0000  0.0000  13.800   1  1.100  0.900;
   145  2     0.000     0.000     0.000     0.000   1  1.0000  0.0000  13.800   1  1.100  0.900;
   146  2     0.000     0.000     0.000     0.000   1  1.0000  0.0000  13.800   1  1.100  0.900;
   147  2     0.000     0.000     0.000     0.000   1  1.0000  0.0000  13.800   1  1.100  0.900;
   148  2     0.000     0.000     0.000     0.000   1  1.0000  0.0000  13.800   1  1.100  0.900;
   149  2     0.000     0.000     0.000     0.000   1  1.0000  0.0000  13.800   1  1.100  0.900;
   150  2     0.000     0.000     0.000     0.000   1  1.0000  0.0000  13.800   1  1.100  0.900;
   151  2     0.000     0.000     0.000     0.000   1  1.0000  0.0000  13.800   1  1.100  0.900;
   152  2     0.000     0.000     0.000     0.000   1  1.0000  0.0000  13.800   1  1.100  0.900;
   153  2     0.000     0.000     0.000     0.000   1  1.0000  0.0000  13.800   1  1.100  0.900;
   154  2     0.000     0.000     0.000     0.000   1  1.0000  0.0000  13.800   1  1.100  0.900;
   155  2     0.000     0.000     0.000     0.000   1  1.0000  0.0000  13.800   1  1.100  0.900;
   156  2     0.000     0.000     0.000     0.000   1  1.0000  0.0000  13.800   1  1.100  0.900;
   157  2     0.000     0.000     0.000     0.000   1  1.0000  0.0000  13.800   1  1.100  0.900;
   158  2     0.000     0.000     0.000     0.000   1  1.0000  0.0000  13.800   1  1.100  0.900;
   159  2     0.000     0.000     0.000     0.000   1  1.0000  0.0000  13.800   1  1.100  0.900;
   160  2     0.000     0.000     0.000     0.000   1  1.0000  0.0000  13.800   1  1.100  0.900;
   161  2     0.000     0.000     0.000     0.000   1  1.0000  0.0000  13.800   1  1.100  0.900;
   162  2     0.000     0.000     0.000     0.000   1  1.0000  0.0000  13.800   1  1.100  0.900;
   163  2     0.000     0.000     0.000     0.000   1  1.0000  0.0000  13.800   1  1.100  0.900;
   164  2     0.000     0.000     0.000     0.000   1  1.0000  0.0000  13.800   1  1.100  0.900;
   165  2     0.000     0.000     0.000     0.000   1  1.0000  0.0000  13.800   1  1.100  0.900;
   166  2     0.000     0.000     0.000     0.000   1  1.0000  0.0000  13.800   1  1.100  0.900;
   167  2     0.000     0.000     0.000     0.000   1  1.0000  0.0000  13.800   1  1.100  0.900;
   168  2     0.000     0.000     0.000     0.000   1  1.0000  0.0000  13.800   1  1.100  0.900;
   169  2     0.000     0.000     0.000     0.000   1  1.0000  0.0000  13.800   1  1.100  0.900;
   170  2     0.000     0.000     0.000     0.000   1  1.0000  0.0000  13.800   1  1.100  0.900;
   171  2     0.000     0.000     0.000     0.000   1  1.0000  0.0000  13.800   1  1.100  0.900;
   172  2     0.000     0.000     0.000     0.000   1  1.0000  0.0000  13.800   1  1.100  0.900;
   173  2     0.000     0.000     0.000     0.000   1  1.0000  0.0000  13.800   1  1.100  0.900;
   174  2     0.000     0.000     0.000     0.000   1  1.0000  0.0000  13.800   1  1.100  0.900;
   175  2     0.000     0.000     0.000     0.000   1  1.0000  0.0000  13.800   1  1.100  0.900;
   176  2     0.000     0.000     0.000     0.000   1  1.0000  0.0000  13.800   1  1.100  0.900;
   177  2     0.000     0.000     0.000     0.000   1  1.0000  0.0000  13.800   1  1.100  0.900;
   178  2     0.000     0.000     0.000     0.000   1  1.0000  0.0000  13.800   1  1.100  0.900;
   179  2     0.000     0.000     0.000     0.000   1  1.0000  0.0000  13.800   1  1.100  0.900;
   180  2     0.000     0.000     0.000     0.000   1  1.0000  0.0000  13.800   1  1.100  0.900;
   181  2     0.000     0.000     0.000     0.000   1  1.0000  0.0000  13.800   1  1.100  0.900;
   182  2     0.000     0.000     0.000     0.000   1  1.0000  0.0000  13.800   1  1.100  0.900;
   183  2     0.000     0.000     0.000     0.000   1  1.0000  0.0000  13.800   1  1.100  0.900;
   184  2     0.000     0.000     0.000     0.000   1  1.0000  0.0000  13.800   1  1.100  0.900;
   185  2     0.000     0.000     0.000     0.000   1  1.0000  0.0000  13.800   1  1.100  0.900;
   186  2     0.000     0.000     0.000     0.000   1  1.0000  0.0000  13.800   1  1.100  0.900;
   187  2     0.000     0.000     0.000     0.000   1  1.0000  0.0000  13.800   1  1.100  0.900;
   188  2     0.000     0.000     0.000     0.000   1  1.0000  0.0000  13.800   1  1.100  0.900;
   189  2     0.000     0.000     0.000     0.000   1  1.0000  0.0000  13.800   1  1.100  0.900;
   190  2     0.000     0.000     0.000     0.000   1  1.0000  0.0000  13.800   1  1.100  0.900;
   191  2     0.000     0.000     0.000     0.000   1  1.0000  0.0000  13.800   1  1.100  0.900;
   192  2     0.000     0.000     0.000     0.000   1  1.0000  0.0000  13.800   1  1.100  0.900;
   193  2     0.000     0.000     0.000     0.000   1  1.0000  0.0000  13.800   1  1.100  0.900;
];

%% generator data - SyncMachine+Solar+Wind
%	bus Pg Qg Qmax Qmin Vg mBase status Pmax Pmin Pc1 Pc2 Qc1min Qc1max Qc2min Qc2max ramp_agc ramp_10 ramp_30 ramp_q apf
mpc.gen = [
   119    0.000   -3.104   48.000  -15.000 1.0000  115.000 1  115.000    0.000 0.0 0.0 0.0 0.0 0.0 0.0 0.0 0.0 0.0 0.0 0.0;
   120    0.000  -15.005  100.000 -100.000 1.0000  115.000 1  115.000    0.000 0.0 0.0 0.0 0.0 0.0 0.0 0.0 0.0 0.0 0.0 0.0;
   121    0.000   15.930   50.000  -13.000 1.0000  115.000 1  115.000    0.000 0.0 0.0 0.0 0.0 0.0 0.0 0.0 0.0 0.0 0.0 0.0;
   122    0.000   62.758   35.700  -35.700 1.0000   42.000 1   42.000    0.000 0.0 0.0 0.0 0.0 0.0 0.0 0.0 0.0 0.0 0.0 0.0;
   123  210.800  -51.042  100.000  -73.500 1.0000  248.000 1  248.000    0.000 0.0 0.0 0.0 0.0 0.0 0.0 0.0 0.0 0.0 0.0 0.0;
   124   20.000   91.274   12.500   -8.800 1.0000   23.500 1   23.500    0.000 0.0 0.0 0.0 0.0 0.0 0.0 0.0 0.0 0.0 0.0 0.0;
   125    0.000    3.060   30.000  -10.000 1.0000  115.000 1  115.000    0.000 0.0 0.0 0.0 0.0 0.0 0.0 0.0 0.0 0.0 0.0 0.0;
   127    0.000   25.532   50.000  -16.000 1.0000  115.000 1  115.000    0.000 0.0 0.0 0.0 0.0 0.0 0.0 0.0 0.0 0.0 0.0 0.0;
   129    0.000   -8.000   24.000   -8.000 1.0000  115.000 1  115.000    0.000 0.0 0.0 0.0 0.0 0.0 0.0 0.0 0.0 0.0 0.0 0.0;
   131    0.000  -15.282   42.500  -42.500 1.0000  470.000 1  470.000    0.000 0.0 0.0 0.0 0.0 0.0 0.0 0.0 0.0 0.0 0.0 0.0;
   133  182.800   49.798  110.000  -47.000 1.0000  215.000 1  215.000    0.000 0.0 0.0 0.0 0.0 0.0 0.0 0.0 0.0 0.0 0.0 0.0;
   134  130.000    9.905   80.000  -80.000 1.0000  153.000 1  153.000    0.000 0.0 0.0 0.0 0.0 0.0 0.0 0.0 0.0 0.0 0.0 0.0;
   135    0.000    2.831  300.000 -300.000 1.0000  440.000 1  440.000    0.000 0.0 0.0 0.0 0.0 0.0 0.0 0.0 0.0 0.0 0.0 0.0;
   137    7.000   31.976    4.000   -4.000 1.0000    8.000 1    8.000    0.000 0.0 0.0 0.0 0.0 0.0 0.0 0.0 0.0 0.0 0.0 0.0;
   139    0.000  -14.000   42.000  -14.000 1.0000  115.000 1  115.000    0.000 0.0 0.0 0.0 0.0 0.0 0.0 0.0 0.0 0.0 0.0 0.0;
   141    0.000   -8.000   24.000   -8.000 1.0000  115.000 1  115.000    0.000 0.0 0.0 0.0 0.0 0.0 0.0 0.0 0.0 0.0 0.0 0.0;
   142    0.000   -1.252   24.000   -8.000 1.0000  115.000 1  115.000    0.000 0.0 0.0 0.0 0.0 0.0 0.0 0.0 0.0 0.0 0.0 0.0;
   143    0.000   26.886  100.000 -100.000 1.0000  115.000 1  115.000    0.000 0.0 0.0 0.0 0.0 0.0 0.0 0.0 0.0 0.0 0.0 0.0;
   144    0.000   41.004   29.800  -29.800 1.0000   35.000 1   35.000    0.000 0.0 0.0 0.0 0.0 0.0 0.0 0.0 0.0 0.0 0.0 0.0;
   145    9.300   -5.231    6.000   -4.000 1.0000   10.900 1   10.900    0.000 0.0 0.0 0.0 0.0 0.0 0.0 0.0 0.0 0.0 0.0 0.0;
   146  106.500  115.647   90.000  -45.000 1.0000  150.000 1  150.000    0.000 0.0 0.0 0.0 0.0 0.0 0.0 0.0 0.0 0.0 0.0 0.0;
   147   34.000    3.902   20.000  -20.000 1.0000   40.000 1   40.000    0.000 0.0 0.0 0.0 0.0 0.0 0.0 0.0 0.0 0.0 0.0 0.0;
   148   35.000    3.902   20.000  -20.000 1.0000   40.000 1   40.000    0.000 0.0 0.0 0.0 0.0 0.0 0.0 0.0 0.0 0.0 0.0 0.0;
   150    0.000    4.664   23.000   -8.000 1.0000  115.000 1  115.000    0.000 0.0 0.0 0.0 0.0 0.0 0.0 0.0 0.0 0.0 0.0 0.0;
   152    0.000   -2.286   15.000   -8.000 1.0000   20.000 1   20.000    0.000 0.0 0.0 0.0 0.0 0.0 0.0 0.0 0.0 0.0 0.0 0.0;
   153   95.000   76.834   65.000  -30.000 1.0000  115.000 1  115.000    0.000 0.0 0.0 0.0 0.0 0.0 0.0 0.0 0.0 0.0 0.0 0.0;
   154  200.000  -40.394  130.000 -100.000 1.0000  238.000 1  238.000    0.000 0.0 0.0 0.0 0.0 0.0 0.0 0.0 0.0 0.0 0.0 0.0;
   155    0.000    1.259   50.000  -50.000 1.0000  115.000 1  115.000    0.000 0.0 0.0 0.0 0.0 0.0 0.0 0.0 0.0 0.0 0.0 0.0;
   156  187.000   80.812  100.000  -33.500 1.0000  220.000 1  220.000    0.000 0.0 0.0 0.0 0.0 0.0 0.0 0.0 0.0 0.0 0.0 0.0;
   157  196.000   -1.951  100.000  -33.500 1.0000  238.000 1  238.000    0.000 0.0 0.0 0.0 0.0 0.0 0.0 0.0 0.0 0.0 0.0 0.0;
   158  513.388  -82.378  300.000 -300.000 1.0000  153.000 1  153.000    0.000 0.0 0.0 0.0 0.0 0.0 0.0 0.0 0.0 0.0 0.0 0.0;
   160    0.000    9.664   32.000  -10.000 1.0000  115.000 1  115.000    0.000 0.0 0.0 0.0 0.0 0.0 0.0 0.0 0.0 0.0 0.0 0.0;
   161    0.000  -11.130  100.000 -100.000 1.0000  110.000 1  110.000    0.000 0.0 0.0 0.0 0.0 0.0 0.0 0.0 0.0 0.0 0.0 0.0;
   162    0.000    9.651  100.000 -100.000 1.0000  115.000 1  115.000    0.000 0.0 0.0 0.0 0.0 0.0 0.0 0.0 0.0 0.0 0.0 0.0;
   163    0.000   -5.628    9.000   -6.000 1.0000  115.000 1  115.000    0.000 0.0 0.0 0.0 0.0 0.0 0.0 0.0 0.0 0.0 0.0 0.0;
   164    0.000    5.269   50.000  -50.000 1.0000  115.000 1  115.000    0.000 0.0 0.0 0.0 0.0 0.0 0.0 0.0 0.0 0.0 0.0 0.0;
   166    0.000   11.943   70.000  -20.000 1.0000  115.000 1  115.000    0.000 0.0 0.0 0.0 0.0 0.0 0.0 0.0 0.0 0.0 0.0 0.0;
   167  137.700  105.050  140.000  -82.500 1.0000  162.000 1  162.000    0.000 0.0 0.0 0.0 0.0 0.0 0.0 0.0 0.0 0.0 0.0 0.0;
   169    0.000   -5.768   23.000   -8.000 1.0000  115.000 1  115.000    0.000 0.0 0.0 0.0 0.0 0.0 0.0 0.0 0.0 0.0 0.0 0.0;
   170   10.000   11.022    7.500   -5.000 1.0000   12.500 1   12.500    0.000 0.0 0.0 0.0 0.0 0.0 0.0 0.0 0.0 0.0 0.0 0.0;
   171  202.000  -11.794  100.000  -70.000 1.0000  238.000 1  238.000    0.000 0.0 0.0 0.0 0.0 0.0 0.0 0.0 0.0 0.0 0.0 0.0;
   172    0.000   59.300   32.700  -32.700 1.0000   38.500 1   38.500    0.000 0.0 0.0 0.0 0.0 0.0 0.0 0.0 0.0 0.0 0.0 0.0;
   173    0.000  -14.847   29.800  -29.800 1.0000   35.000 1   35.000    0.000 0.0 0.0 0.0 0.0 0.0 0.0 0.0 0.0 0.0 0.0 0.0;
   174    0.000   -3.000   21.000   -3.000 1.0000  115.000 1  115.000    0.000 0.0 0.0 0.0 0.0 0.0 0.0 0.0 0.0 0.0 0.0 0.0;
   176    0.000  -17.537  100.000 -100.000 1.0000  115.000 1  115.000    0.000 0.0 0.0 0.0 0.0 0.0 0.0 0.0 0.0 0.0 0.0 0.0;
   177   85.000  110.058   50.000  -25.000 1.0000  100.000 1  100.000    0.000 0.0 0.0 0.0 0.0 0.0 0.0 0.0 0.0 0.0 0.0 0.0;
   178  200.000  110.058  130.000  -90.000 1.0000  238.000 1  238.000    0.000 0.0 0.0 0.0 0.0 0.0 0.0 0.0 0.0 0.0 0.0 0.0;
   181   60.000   40.000   40.000  -15.000 1.0000   75.000 1   75.000    0.000 0.0 0.0 0.0 0.0 0.0 0.0 0.0 0.0 0.0 0.0 0.0;
   182    0.000    5.643   23.000   -8.000 1.0000  115.000 1  115.000    0.000 0.0 0.0 0.0 0.0 0.0 0.0 0.0 0.0 0.0 0.0 0.0;
   184    0.000   -8.000   23.000   -8.000 1.0000  115.000 1  115.000    0.000 0.0 0.0 0.0 0.0 0.0 0.0 0.0 0.0 0.0 0.0 0.0;
   186    0.000    5.694   10.600  -10.600 1.0000   12.500 1   12.500    0.000 0.0 0.0 0.0 0.0 0.0 0.0 0.0 0.0 0.0 0.0 0.0;
   187    0.000    4.854   23.000   -8.000 1.0000  115.000 1  115.000    0.000 0.0 0.0 0.0 0.0 0.0 0.0 0.0 0.0 0.0 0.0 0.0;
   189   57.000   -1.844   35.000  -30.000 1.0000   67.000 1   67.000    0.000 0.0 0.0 0.0 0.0 0.0 0.0 0.0 0.0 0.0 0.0 0.0;
   190    0.000   41.512    8.500   -8.500 1.0000   10.000 1   10.000    0.000 0.0 0.0 0.0 0.0 0.0 0.0 0.0 0.0 0.0 0.0 0.0;
   192    0.000    6.323    5.000   -5.000 1.0000    6.000 1    6.000    0.000 0.0 0.0 0.0 0.0 0.0 0.0 0.0 0.0 0.0 0.0 0.0;
   193  184.000   51.324  184.400 -184.400 1.0000  217.000 1  217.000    0.000 0.0 0.0 0.0 0.0 0.0 0.0 0.0 0.0 0.0 0.0 0.0;
   126    0.000    0.000   53.600  -53.600 1.0000   53.600 1   53.600    0.000 0.0 0.0 0.0 0.0 0.0 0.0 0.0 0.0 0.0 0.0 0.0;
   128    0.000    0.000   73.200  -73.200 1.0000   73.200 1   73.200    0.000 0.0 0.0 0.0 0.0 0.0 0.0 0.0 0.0 0.0 0.0 0.0;
   130    0.000    0.000   49.600  -49.600 1.0000   49.600 1   49.600    0.000 0.0 0.0 0.0 0.0 0.0 0.0 0.0 0.0 0.0 0.0 0.0;
   140    0.000    0.000  300.000 -300.000 1.0000  300.000 1  300.000    0.000 0.0 0.0 0.0 0.0 0.0 0.0 0.0 0.0 0.0 0.0 0.0;
   149    0.000    0.000  105.600 -105.600 1.0000  105.600 1  105.600    0.000 0.0 0.0 0.0 0.0 0.0 0.0 0.0 0.0 0.0 0.0 0.0;
   151    0.000    0.000   12.000  -12.000 1.0000   12.000 1   12.000    0.000 0.0 0.0 0.0 0.0 0.0 0.0 0.0 0.0 0.0 0.0 0.0;
   159    0.000    0.000   49.600  -49.600 1.0000   49.600 1   49.600    0.000 0.0 0.0 0.0 0.0 0.0 0.0 0.0 0.0 0.0 0.0 0.0;
   165    0.000    0.000   10.000  -10.000 1.0000   10.000 1   10.000    0.000 0.0 0.0 0.0 0.0 0.0 0.0 0.0 0.0 0.0 0.0 0.0;
   175    0.000    0.000  207.600 -207.600 1.0000  207.600 1  207.600    0.000 0.0 0.0 0.0 0.0 0.0 0.0 0.0 0.0 0.0 0.0 0.0;
   179    0.000    0.000   41.600  -41.600 1.0000   41.600 1   41.600    0.000 0.0 0.0 0.0 0.0 0.0 0.0 0.0 0.0 0.0 0.0 0.0;
   183    0.000    0.000  186.400 -186.400 1.0000  186.400 1  186.400    0.000 0.0 0.0 0.0 0.0 0.0 0.0 0.0 0.0 0.0 0.0 0.0;
   185    0.000    0.000  108.800 -108.800 1.0000  108.800 1  108.800    0.000 0.0 0.0 0.0 0.0 0.0 0.0 0.0 0.0 0.0 0.0 0.0;
   188    0.000    0.000  101.200 -101.200 1.0000  101.200 1  101.200    0.000 0.0 0.0 0.0 0.0 0.0 0.0 0.0 0.0 0.0 0.0 0.0;
   191    0.000    0.000   65.200  -65.200 1.0000   65.200 1   65.200    0.000 0.0 0.0 0.0 0.0 0.0 0.0 0.0 0.0 0.0 0.0 0.0;
   132    0.000    0.000   26.000  -26.000 1.0000   26.000 1   26.000    0.000 0.0 0.0 0.0 0.0 0.0 0.0 0.0 0.0 0.0 0.0 0.0;
   136    0.000    0.000   41.600  -41.600 1.0000   41.600 1   41.600    0.000 0.0 0.0 0.0 0.0 0.0 0.0 0.0 0.0 0.0 0.0 0.0;
   138    0.000    0.000   62.000  -62.000 1.0000   62.000 1   62.000    0.000 0.0 0.0 0.0 0.0 0.0 0.0 0.0 0.0 0.0 0.0 0.0;
   168    0.000    0.000  139.200 -139.200 1.0000  139.200 1  139.200    0.000 0.0 0.0 0.0 0.0 0.0 0.0 0.0 0.0 0.0 0.0 0.0;
   180    0.000    0.000  160.000 -160.000 1.0000  160.000 1  160.000    0.000 0.0 0.0 0.0 0.0 0.0 0.0 0.0 0.0 0.0 0.0 0.0;
];

%% branch data - BESLine+BESCompSeries+collected transformers
%	fbus tbus r x b rateA rateB rateC ratio angle status angmin angmax
mpc.branch = [
   100   101  0.027662  0.126117  0.032811  157.000 0.0 0.0 0.0 0.0 1 0.0 0.0;
   100   103  0.015985  0.052478  0.053613  157.000 0.0 0.0 0.0 0.0 1 0.0 0.0;
   100   104  0.044934  0.203643  0.054150  157.000 0.0 0.0 0.0 0.0 1 0.0 0.0;
   100   106  0.060214  0.228496  0.062073  157.000 0.0 0.0 0.0 0.0 1 0.0 0.0;
   101   102  0.024573  0.111942  0.029408  157.000 0.0 0.0 0.0 0.0 1 0.0 0.0;
   103   104  0.046500  0.158245  0.040722  157.000 0.0 0.0 0.0 0.0 1 0.0 0.0;
   103   105  0.053382  0.162340  0.040823  157.000 0.0 0.0 0.0 0.0 1 0.0 0.0;
   103   110  0.038951  0.181059  0.046132  157.000 0.0 0.0 0.0 0.0 1 0.0 0.0;
   104   105  0.009939  0.037798  0.009860  157.000 0.0 0.0 0.0 0.0 1 0.0 0.0;
   105   106  0.013996  0.054693  0.014341  157.000 0.0 0.0 0.0 0.0 1 0.0 0.0;
   105   107  0.052847  0.182759  0.047234  157.000 0.0 0.0 0.0 0.0 1 0.0 0.0;
   105   108  0.026089  0.070287  0.018442  157.000 0.0 0.0 0.0 0.0 1 0.0 0.0;
   106   107  0.052847  0.182759  0.047234  157.000 0.0 0.0 0.0 0.0 1 0.0 0.0;
   108   109  0.010499  0.028799  0.007600  157.000 0.0 0.0 0.0 0.0 1 0.0 0.0;
   109   110  0.027786  0.076183  0.020203  157.000 0.0 0.0 0.0 0.0 1 0.0 0.0;
   110   111  0.021989  0.075483  0.020003  157.000 0.0 0.0 0.0 0.0 1 0.0 0.0;
   110   112  0.024667  0.063964  0.062021  157.000 0.0 0.0 0.0 0.0 1 0.0 0.0;
   114   115  0.002300  0.010400  0.002760  157.000 0.0 0.0 0.0 0.0 1 0.0 0.0;
    11    12  0.005950  0.019600  0.005020  157.000 0.0 0.0 0.0 0.0 1 0.0 0.0;
    11    13  0.022240  0.073085  0.018762  157.000 0.0 0.0 0.0 0.0 1 0.0 0.0;
    12   117  0.032845  0.139890  0.035815  157.000 0.0 0.0 0.0 0.0 1 0.0 0.0;
    12    14  0.021491  0.070686  0.018162  157.000 0.0 0.0 0.0 0.0 1 0.0 0.0;
    12    16  0.021187  0.083377  0.021403  157.000 0.0 0.0 0.0 0.0 1 0.0 0.0;
    13    15  0.074021  0.243834  0.062760  157.000 0.0 0.0 0.0 0.0 1 0.0 0.0;
    14    15  0.059306  0.194712  0.050241  157.000 0.0 0.0 0.0 0.0 1 0.0 0.0;
    15    17  0.013191  0.043687  0.044407  157.000 0.0 0.0 0.0 0.0 1 0.0 0.0;
    15    19  0.011998  0.039398  0.010100  157.000 0.0 0.0 0.0 0.0 1 0.0 0.0;
    15    33  0.037950  0.124325  0.031951  157.000 0.0 0.0 0.0 0.0 1 0.0 0.0;
    16    17  0.045273  0.179864  0.046633  157.000 0.0 0.0 0.0 0.0 1 0.0 0.0;
    17   113  0.009129  0.030099  0.007680  157.000 0.0 0.0 0.0 0.0 1 0.0 0.0;
    17    18  0.012297  0.050495  0.012981  157.000 0.0 0.0 0.0 0.0 1 0.0 0.0;
    17    31  0.047302  0.156153  0.039921  157.000 0.0 0.0 0.0 0.0 1 0.0 0.0;
    18    19  0.011188  0.049296  0.011421  157.000 0.0 0.0 0.0 0.0 1 0.0 0.0;
    19    20  0.025171  0.116935  0.029809  157.000 0.0 0.0 0.0 0.0 1 0.0 0.0;
    19    34  0.074809  0.246417  0.063282  157.000 0.0 0.0 0.0 0.0 1 0.0 0.0;
     1     2  0.030274  0.099862  0.025405  157.000 0.0 0.0 0.0 0.0 1 0.0 0.0;
     1     3  0.012898  0.042397  0.010820  157.000 0.0 0.0 0.0 0.0 1 0.0 0.0;
    20    21  0.018289  0.084875  0.021603  157.000 0.0 0.0 0.0 0.0 1 0.0 0.0;
    21    22  0.020883  0.096963  0.024605  157.000 0.0 0.0 0.0 0.0 1 0.0 0.0;
    22    23  0.034127  0.158838  0.040422  157.000 0.0 0.0 0.0 0.0 1 0.0 0.0;
    23    24  0.013489  0.049181  0.049810  157.000 0.0 0.0 0.0 0.0 1 0.0 0.0;
    23    25  0.015564  0.079911  0.086450  157.000 0.0 0.0 0.0 0.0 1 0.0 0.0;
    23    32  0.031557  0.115060  0.117432  157.000 0.0 0.0 0.0 0.0 1 0.0 0.0;
    24    70  0.002179  0.408628  0.102338  157.000 0.0 0.0 0.0 0.0 1 0.0 0.0;
    24    72  0.048645  0.195707  0.048839  157.000 0.0 0.0 0.0 0.0 1 0.0 0.0;
    25    27  0.031496  0.162250  0.176824  157.000 0.0 0.0 0.0 0.0 1 0.0 0.0;
    26    30  0.007783  0.084895  0.913955 1084.000 0.0 0.0 0.0 0.0 1 0.0 0.0;
    27   115  0.016392  0.074083  0.019722  157.000 0.0 0.0 0.0 0.0 1 0.0 0.0;
    27    28  0.019118  0.085475  0.021603  157.000 0.0 0.0 0.0 0.0 1 0.0 0.0;
    27    32  0.022889  0.075483  0.019262  157.000 0.0 0.0 0.0 0.0 1 0.0 0.0;
    28    29  0.023682  0.094267  0.023804  157.000 0.0 0.0 0.0 0.0 1 0.0 0.0;
    29    31  0.010799  0.033099  0.008300  157.000 0.0 0.0 0.0 0.0 1 0.0 0.0;
     2    12  0.018694  0.061591  0.015721  157.000 0.0 0.0 0.0 0.0 1 0.0 0.0;
    30    38  0.004605  0.053797  0.422803 1084.000 0.0 0.0 0.0 0.0 1 0.0 0.0;
    31    32  0.029775  0.098463  0.025105  157.000 0.0 0.0 0.0 0.0 1 0.0 0.0;
    32   113  0.061285  0.202677  0.051845  157.000 0.0 0.0 0.0 0.0 1 0.0 0.0;
    32   114  0.013496  0.061190  0.016281  157.000 0.0 0.0 0.0 0.0 1 0.0 0.0;
    33    37  0.041428  0.141888  0.036616  157.000 0.0 0.0 0.0 0.0 1 0.0 0.0;
    34    36  0.008710  0.026799  0.005680  157.000 0.0 0.0 0.0 0.0 1 0.0 0.0;
    34    37  0.002560  0.009400  0.009840  157.000 0.0 0.0 0.0 0.0 1 0.0 0.0;
    34    43  0.041202  0.167913  0.042285  157.000 0.0 0.0 0.0 0.0 1 0.0 0.0;
    35    36  0.002240  0.010200  0.002680  157.000 0.0 0.0 0.0 0.0 1 0.0 0.0;
    35    37  0.010998  0.049695  0.013181  157.000 0.0 0.0 0.0 0.0 1 0.0 0.0;
    37    39  0.032069  0.105954  0.027006  157.000 0.0 0.0 0.0 0.0 1 0.0 0.0;
    37    40  0.059161  0.167827  0.042025  157.000 0.0 0.0 0.0 0.0 1 0.0 0.0;
    38    65  0.008703  0.096928  1.055083 1084.000 0.0 0.0 0.0 0.0 1 0.0 0.0;
    39    40  0.018394  0.060491  0.015521  157.000 0.0 0.0 0.0 0.0 1 0.0 0.0;
     3    12  0.048295  0.159843  0.040622  157.000 0.0 0.0 0.0 0.0 1 0.0 0.0;
     3     5  0.024075  0.107948  0.028407  157.000 0.0 0.0 0.0 0.0 1 0.0 0.0;
    40    41  0.014497  0.048696  0.012221  157.000 0.0 0.0 0.0 0.0 1 0.0 0.0;
    40    42  0.055342  0.182764  0.046633  157.000 0.0 0.0 0.0 0.0 1 0.0 0.0;
    41    42  0.040937  0.134905  0.034413  157.000 0.0 0.0 0.0 0.0 1 0.0 0.0;
    42    49  0.070839  0.321580  0.086200  157.000 0.0 0.0 0.0 0.0 1 0.0 0.0;
    42    49  0.070839  0.321580  0.086200  157.000 0.0 0.0 0.0 0.0 1 0.0 0.0;
    43    44  0.060499  0.244829  0.060755  157.000 0.0 0.0 0.0 0.0 1 0.0 0.0;
    44    45  0.022385  0.090072  0.022404  157.000 0.0 0.0 0.0 0.0 1 0.0 0.0;
    45    46  0.039940  0.135507  0.033212  157.000 0.0 0.0 0.0 0.0 1 0.0 0.0;
    45    49  0.068212  0.185779  0.044431  157.000 0.0 0.0 0.0 0.0 1 0.0 0.0;
    46    47  0.037949  0.126923  0.031611  157.000 0.0 0.0 0.0 0.0 1 0.0 0.0;
    46    48  0.059921  0.188747  0.047235  157.000 0.0 0.0 0.0 0.0 1 0.0 0.0;
    47    49  0.019094  0.062491  0.016041  157.000 0.0 0.0 0.0 0.0 1 0.0 0.0;
    47    69  0.083847  0.276973  0.071037  157.000 0.0 0.0 0.0 0.0 1 0.0 0.0;
    48    49  0.017896  0.050495  0.012581  157.000 0.0 0.0 0.0 0.0 1 0.0 0.0;
    49    50  0.026687  0.075185  0.018742  157.000 0.0 0.0 0.0 0.0 1 0.0 0.0;
    49    51  0.048524  0.136906  0.034213  157.000 0.0 0.0 0.0 0.0 1 0.0 0.0;
    49    54  0.072482  0.288039  0.073931  157.000 0.0 0.0 0.0 0.0 1 0.0 0.0;
    49    54  0.086286  0.290062  0.073129  157.000 0.0 0.0 0.0 0.0 1 0.0 0.0;
    49    66  0.017986  0.091866  0.024805  157.000 0.0 0.0 0.0 0.0 1 0.0 0.0;
    49    66  0.017986  0.091866  0.024805  157.000 0.0 0.0 0.0 0.0 1 0.0 0.0;
    49    69  0.097621  0.322687  0.082986  157.000 0.0 0.0 0.0 0.0 1 0.0 0.0;
     4    11  0.020892  0.068787  0.017482  157.000 0.0 0.0 0.0 0.0 1 0.0 0.0;
     4     5  0.001760  0.007980  0.002100  157.000 0.0 0.0 0.0 0.0 1 0.0 0.0;
    50    57  0.047330  0.133913  0.033212  157.000 0.0 0.0 0.0 0.0 1 0.0 0.0;
    51    52  0.020294  0.058793  0.013961  157.000 0.0 0.0 0.0 0.0 1 0.0 0.0;
    51    58  0.025489  0.071887  0.017882  157.000 0.0 0.0 0.0 0.0 1 0.0 0.0;
    52    53  0.040410  0.163330  0.040602  157.000 0.0 0.0 0.0 0.0 1 0.0 0.0;
    53    54  0.026267  0.121927  0.031010  157.000 0.0 0.0 0.0 0.0 1 0.0 0.0;
    54    55  0.016892  0.070684  0.020202  157.000 0.0 0.0 0.0 0.0 1 0.0 0.0;
    54    56  0.002750  0.009550  0.007320  157.000 0.0 0.0 0.0 0.0 1 0.0 0.0;
    54    59  0.050070  0.228801  0.059868  157.000 0.0 0.0 0.0 0.0 1 0.0 0.0;
    55    56  0.004880  0.015100  0.003740  157.000 0.0 0.0 0.0 0.0 1 0.0 0.0;
    55    59  0.047198  0.215383  0.056517  157.000 0.0 0.0 0.0 0.0 1 0.0 0.0;
    56    57  0.034273  0.096567  0.024205  157.000 0.0 0.0 0.0 0.0 1 0.0 0.0;
    56    58  0.034273  0.096567  0.024205  157.000 0.0 0.0 0.0 0.0 1 0.0 0.0;
    56    59  0.082108  0.250467  0.056968  157.000 0.0 0.0 0.0 0.0 1 0.0 0.0;
    56    59  0.079957  0.238548  0.053657  157.000 0.0 0.0 0.0 0.0 1 0.0 0.0;
    59    60  0.031642  0.144875  0.037617  157.000 0.0 0.0 0.0 0.0 1 0.0 0.0;
    59    61  0.032736  0.149861  0.038819  157.000 0.0 0.0 0.0 0.0 1 0.0 0.0;
     5    11  0.020292  0.068188  0.017382  157.000 0.0 0.0 0.0 0.0 1 0.0 0.0;
     5     6  0.011897  0.053993  0.014261  157.000 0.0 0.0 0.0 0.0 1 0.0 0.0;
    60    61  0.002640  0.013500  0.014560  157.000 0.0 0.0 0.0 0.0 1 0.0 0.0;
    60    62  0.012297  0.056093  0.014681  157.000 0.0 0.0 0.0 0.0 1 0.0 0.0;
    61    62  0.008239  0.037598  0.009800  157.000 0.0 0.0 0.0 0.0 1 0.0 0.0;
    62    66  0.047998  0.217565  0.057861  157.000 0.0 0.0 0.0 0.0 1 0.0 0.0;
    62    67  0.025769  0.116933  0.031009  157.000 0.0 0.0 0.0 0.0 1 0.0 0.0;
    63    64  0.001718  0.019986  0.216078 1084.000 0.0 0.0 0.0 0.0 1 0.0 0.0;
    64    65  0.002680  0.030143  0.380364 1084.000 0.0 0.0 0.0 0.0 1 0.0 0.0;
    65    68  0.001375  0.015973  0.638543 1084.000 0.0 0.0 0.0 0.0 1 0.0 0.0;
    66    67  0.022380  0.101456  0.026826  157.000 0.0 0.0 0.0 0.0 1 0.0 0.0;
    68   116  0.000340  0.004050  0.164009 1084.000 0.0 0.0 0.0 0.0 1 0.0 0.0;
    68    81  0.001740  0.020146  0.809101 1084.000 0.0 0.0 0.0 0.0 1 0.0 0.0;
    69    70  0.029845  0.126691  0.122158  157.000 0.0 0.0 0.0 0.0 1 0.0 0.0;
    69    75  0.040296  0.121726  0.124157  157.000 0.0 0.0 0.0 0.0 1 0.0 0.0;
    69    77  0.030792  0.100840  0.103891  157.000 0.0 0.0 0.0 0.0 1 0.0 0.0;
     6     7  0.004590  0.020800  0.005500  157.000 0.0 0.0 0.0 0.0 1 0.0 0.0;
    70    71  0.008819  0.035498  0.008780  157.000 0.0 0.0 0.0 0.0 1 0.0 0.0;
    70    74  0.040040  0.132211  0.033693  157.000 0.0 0.0 0.0 0.0 1 0.0 0.0;
    70    75  0.042728  0.140892  0.036015  157.000 0.0 0.0 0.0 0.0 1 0.0 0.0;
    71    72  0.044481  0.179775  0.044470  157.000 0.0 0.0 0.0 0.0 1 0.0 0.0;
    71    73  0.008658  0.045396  0.011781  157.000 0.0 0.0 0.0 0.0 1 0.0 0.0;
    74    75  0.012298  0.040597  0.010340  157.000 0.0 0.0 0.0 0.0 1 0.0 0.0;
    75   118  0.014497  0.048096  0.011981  157.000 0.0 0.0 0.0 0.0 1 0.0 0.0;
    75    77  0.059901  0.199599  0.049821  157.000 0.0 0.0 0.0 0.0 1 0.0 0.0;
    76   118  0.016396  0.054394  0.013561  157.000 0.0 0.0 0.0 0.0 1 0.0 0.0;
    76    77  0.044319  0.147878  0.036817  157.000 0.0 0.0 0.0 0.0 1 0.0 0.0;
    77    78  0.003760  0.012400  0.012640  157.000 0.0 0.0 0.0 0.0 1 0.0 0.0;
    77    80  0.016987  0.048484  0.047209  157.000 0.0 0.0 0.0 0.0 1 0.0 0.0;
    77    80  0.029377  0.104961  0.022805  157.000 0.0 0.0 0.0 0.0 1 0.0 0.0;
    77    82  0.029731  0.085213  0.081788  157.000 0.0 0.0 0.0 0.0 1 0.0 0.0;
    78    79  0.005460  0.024399  0.006480  157.000 0.0 0.0 0.0 0.0 1 0.0 0.0;
    79    80  0.015593  0.070385  0.018702  157.000 0.0 0.0 0.0 0.0 1 0.0 0.0;
     7    12  0.008619  0.033998  0.008740  157.000 0.0 0.0 0.0 0.0 1 0.0 0.0;
    80    96  0.035493  0.181738  0.049437  157.000 0.0 0.0 0.0 0.0 1 0.0 0.0;
    80    97  0.018286  0.093364  0.025405  157.000 0.0 0.0 0.0 0.0 1 0.0 0.0;
    80    98  0.023776  0.107947  0.028607  157.000 0.0 0.0 0.0 0.0 1 0.0 0.0;
    80    99  0.045230  0.205633  0.054651  157.000 0.0 0.0 0.0 0.0 1 0.0 0.0;
    82    83  0.011195  0.036642  0.037964  157.000 0.0 0.0 0.0 0.0 1 0.0 0.0;
    82    96  0.016184  0.052977  0.054413  157.000 0.0 0.0 0.0 0.0 1 0.0 0.0;
    83    84  0.062429  0.131942  0.025807  157.000 0.0 0.0 0.0 0.0 1 0.0 0.0;
    83    85  0.042926  0.147884  0.034815  157.000 0.0 0.0 0.0 0.0 1 0.0 0.0;
    84    85  0.030192  0.064093  0.012341  157.000 0.0 0.0 0.0 0.0 1 0.0 0.0;
    85    86  0.034960  0.122936  0.027608  157.000 0.0 0.0 0.0 0.0 1 0.0 0.0;
    85    88  0.019981  0.101954  0.027606  157.000 0.0 0.0 0.0 0.0 1 0.0 0.0;
    85    89  0.023835  0.172770  0.047032  157.000 0.0 0.0 0.0 0.0 1 0.0 0.0;
    86    87  0.028193  0.207087  0.044534  157.000 0.0 0.0 0.0 0.0 1 0.0 0.0;
    88    89  0.013894  0.071184  0.019342  157.000 0.0 0.0 0.0 0.0 1 0.0 0.0;
    89    90  0.051629  0.187713  0.052844  157.000 0.0 0.0 0.0 0.0 1 0.0 0.0;
    89    90  0.023716  0.099534  0.106093  157.000 0.0 0.0 0.0 0.0 1 0.0 0.0;
    89    92  0.009891  0.050478  0.054813  157.000 0.0 0.0 0.0 0.0 1 0.0 0.0;
    89    92  0.039214  0.157938  0.041423  157.000 0.0 0.0 0.0 0.0 1 0.0 0.0;
     8    30  0.004273  0.050184  0.515112 1084.000 0.0 0.0 0.0 0.0 1 0.0 0.0;
     8     9  0.002411  0.030321  1.165444 1084.000 0.0 0.0 0.0 0.0 1 0.0 0.0;
    90    91  0.025385  0.083577  0.021403  157.000 0.0 0.0 0.0 0.0 1 0.0 0.0;
    91    92  0.038646  0.127120  0.032691  157.000 0.0 0.0 0.0 0.0 1 0.0 0.0;
    92   100  0.064500  0.294349  0.047255  157.000 0.0 0.0 0.0 0.0 1 0.0 0.0;
    92   102  0.012297  0.055893  0.014641  157.000 0.0 0.0 0.0 0.0 1 0.0 0.0;
    92    93  0.025784  0.084776  0.021803  157.000 0.0 0.0 0.0 0.0 1 0.0 0.0;
    92    94  0.047997  0.157847  0.040622  157.000 0.0 0.0 0.0 0.0 1 0.0 0.0;
    93    94  0.022290  0.073185  0.018762  157.000 0.0 0.0 0.0 0.0 1 0.0 0.0;
    94   100  0.017779  0.057969  0.060418  157.000 0.0 0.0 0.0 0.0 1 0.0 0.0;
    94    95  0.013198  0.043397  0.011100  157.000 0.0 0.0 0.0 0.0 1 0.0 0.0;
    94    96  0.026882  0.086874  0.023004  157.000 0.0 0.0 0.0 0.0 1 0.0 0.0;
    95    96  0.017095  0.054693  0.014741  157.000 0.0 0.0 0.0 0.0 1 0.0 0.0;
    96    97  0.017288  0.088470  0.024004  157.000 0.0 0.0 0.0 0.0 1 0.0 0.0;
    98   100  0.039587  0.178758  0.047634  157.000 0.0 0.0 0.0 0.0 1 0.0 0.0;
    99   100  0.017989  0.081277  0.021603  157.000 0.0 0.0 0.0 0.0 1 0.0 0.0;
     9    10  0.002546  0.031989  1.234076 1084.000 0.0 0.0 0.0 0.0 1 0.0 0.0;
   100   177  0.002500  0.100000 0.0  100.000  133.333  166.667 1.000000 0.0 1 0.0 0.0;
   100   178  0.000880  0.040000 0.0  250.000  333.333  416.667 1.000000 0.0 1 0.0 0.0;
   100   179  0.004400  0.200000 0.0   50.000   66.667   83.333 1.000000 0.0 1 0.0 0.0;
   100   180  0.001257  0.057143 0.0  175.000  233.333  291.667 1.000000 0.0 1 0.0 0.0;
   103   181  0.003867  0.133333 0.0   75.000  100.000  125.000 1.000000 0.0 1 0.0 0.0;
   104   182  0.002083  0.083333 0.0  120.000  160.000  200.000 1.000000 0.0 1 0.0 0.0;
   104   183  0.001250  0.050000 0.0  200.000  266.667  333.333 1.000000 0.0 1 0.0 0.0;
   105   184  0.002083  0.083333 0.0  120.000  160.000  200.000 1.000000 0.0 1 0.0 0.0;
   105   185  0.002083  0.083333 0.0  120.000  160.000  200.000 1.000000 0.0 1 0.0 0.0;
   107   186  0.033333  0.666667 0.0   15.000   20.000   25.000 1.000000 0.0 1 0.0 0.0;
    10   123  0.000800  0.040000 0.0  250.000  333.333  416.667 1.000000 0.0 1 0.0 0.0;
   110   187  0.002083  0.083333 0.0  120.000  160.000  200.000 1.000000 0.0 1 0.0 0.0;
   110   188  0.002083  0.083333 0.0  120.000  160.000  200.000 1.000000 0.0 1 0.0 0.0;
   111   189  0.003867  0.133333 0.0   75.000  100.000  125.000 1.000000 0.0 1 0.0 0.0;
   112   190  0.067000  1.000000 0.0   10.000   13.333   16.667 1.000000 0.0 1 0.0 0.0;
   112   191  0.008933  0.133333 0.0   75.000  100.000  125.000 1.000000 0.0 1 0.0 0.0;
   113   192  0.067000  1.000000 0.0   10.000   13.333   16.667 1.000000 0.0 1 0.0 0.0;
   116   193  0.000917  0.041667 0.0  240.000  320.000  400.000 1.000000 0.0 1 0.0 0.0;
    12   124  0.016000  0.400000 0.0   25.000   33.333   41.667 1.000000 0.0 1 0.0 0.0;
    15   125  0.002083  0.083333 0.0  120.000  160.000  200.000 1.000000 0.0 1 0.0 0.0;
    15   126  0.004167  0.166667 0.0   60.000   80.000  100.000 1.000000 0.0 1 0.0 0.0;
    18   127  0.002083  0.083333 0.0  120.000  160.000  200.000 1.000000 0.0 1 0.0 0.0;
    18   128  0.003333  0.133333 0.0   75.000  100.000  125.000 1.000000 0.0 1 0.0 0.0;
...
];

%%-----  OPF Data  -----%%
%% generator cost data
%	1 startup shutdown n x1 y1 ... xn yn
%	2 startup shutdown n c(n-1) ... c0
mpc.gencost = [
  2 0 0 3 0.0060000 45.000 2230.000;
  2 0 0 3 0.0060000 45.000 2230.000;
  2 0 0 3 0.0060000 45.000 2230.000;
  2 0 0 3 0.0060000 45.000 2230.000;
  2 0 0 3 0.0060000 45.000 2230.000;
  2 0 0 3 0.0060000 45.000 2230.000;
  2 0 0 3 0.0060000 45.000 2230.000;
  2 0 0 3 0.0060000 45.000 2230.000;
  2 0 0 3 0.0060000 45.000 2230.000;
  2 0 0 3 0.0060000 45.000 2230.000;
  2 0 0 3 0.0060000 45.000 2230.000;
  2 0 0 3 0.0060000 45.000 2230.000;
  2 0 0 3 0.0060000 45.000 2230.000;
  2 0 0 3 0.0060000 45.000 2230.000;
  2 0 0 3 0.0060000 45.000 2230.000;
  2 0 0 3 0.0060000 45.000 2230.000;
  2 0 0 3 0.0060000 45.000 2230.000;
  2 0 0 3 0.0060000 45.000 2230.000;
  2 0 0 3 0.0060000 45.000 2230.000;
  2 0 0 3 0.0060000 45.000 2230.000;
  2 0 0 3 0.0060000 45.000 2230.000;
  2 0 0 3 0.0060000 45.000 2230.000;
  2 0 0 3 0.0060000 45.000 2230.000;
  2 0 0 3 0.0060000 45.000 2230.000;
  2 0 0 3 0.0060000 45.000 2230.000;
  2 0 0 3 0.0060000 45.000 2230.000;
  2 0 0 3 0.0060000 45.000 2230.000;
  2 0 0 3 0.0060000 45.000 2230.000;
  2 0 0 3 0.0060000 45.000 2230.000;
  2 0 0 3 0.0060000 45.000 2230.000;
  2 0 0 3 0.0060000 45.000 2230.000;
  2 0 0 3 0.0060000 45.000 2230.000;
  2 0 0 3 0.0060000 45.000 2230.000;
  2 0 0 3 0.0060000 45.000 2230.000;
  2 0 0 3 0.0060000 45.000 2230.000;
  2 0 0 3 0.0060000 45.000 2230.000;
  2 0 0 3 0.0060000 45.000 2230.000;
  2 0 0 3 0.0060000 45.000 2230.000;
  2 0 0 3 0.0060000 45.000 2230.000;
  2 0 0 3 0.0060000 45.000 2230.000;
  2 0 0 3 0.0060000 45.000 2230.000;
  2 0 0 3 0.0060000 45.000 2230.000;
  2 0 0 3 0.0060000 45.000 2230.000;
  2 0 0 3 0.0060000 45.000 2230.000;
  2 0 0 3 0.0060000 45.000 2230.000;
  2 0 0 3 0.0060000 45.000 2230.000;
  2 0 0 3 0.0060000 45.000 2230.000;
  2 0 0 3 0.0060000 45.000 2230.000;
  2 0 0 3 0.0060000 45.000 2230.000;
  2 0 0 3 0.0060000 45.000 2230.000;
  2 0 0 3 0.0060000 45.000 2230.000;
  2 0 0 3 0.0060000 45.000 2230.000;
  2 0 0 3 0.0060000 45.000 2230.000;
  2 0 0 3 0.0060000 45.000 2230.000;
  2 0 0 3 0.0060000 45.000 2230.000;
  2 0 0 3 0.0060000 45.000 2230.000;
  2 0 0 3 0.0000100 0.010 0.000;
  2 0 0 3 0.0000100 0.010 0.000;
  2 0 0 3 0.0000100 0.010 0.000;
  2 0 0 3 0.0000100 0.010 0.000;
  2 0 0 3 0.0000100 0.010 0.000;
  2 0 0 3 0.0000100 0.010 0.000;
  2 0 0 3 0.0000100 0.010 0.000;
  2 0 0 3 0.0000100 0.010 0.000;
  2 0 0 3 0.0000100 0.010 0.000;
  2 0 0 3 0.0000100 0.010 0.000;
  2 0 0 3 0.0000100 0.010 0.000;
  2 0 0 3 0.0000100 0.010 0.000;
  2 0 0 3 0.0000100 0.010 0.000;
  2 0 0 3 0.0000100 0.010 0.000;
  2 0 0 3 0.0000100 0.010 0.000;
  2 0 0 3 0.0000100 0.010 0.000;
  2 0 0 3 0.0000100 0.010 0.000;
  2 0 0 3 0.0000100 0.010 0.000;
  2 0 0 3 0.0000100 0.010 0.000;
];

%% generator unit type (see GENTYPES)
% use WT, PV, HY, ST, CT, ST for corresponding GENFUELS
% WT and PV will use WECC dynamics; the others will use Gov/Exc/PSS dynamics
mpc.gentype = {
  'ST';
  'ST';
  'ST';
  'ST';
  'ST';
  'ST';
  'ST';
  'ST';
  'ST';
  'ST';
  'ST';
  'ST';
  'ST';
  'ST';
  'ST';
  'ST';
  'ST';
  'ST';
  'ST';
  'ST';
  'ST';
  'ST';
  'ST';
  'ST';
  'ST';
  'ST';
  'ST';
  'ST';
  'ST';
  'ST';
  'ST';
  'ST';
  'ST';
  'ST';
  'ST';
  'ST';
  'ST';
  'ST';
  'ST';
  'ST';
  'ST';
  'ST';
  'ST';
  'ST';
  'ST';
  'ST';
  'ST';
  'ST';
  'ST';
  'ST';
  'ST';
  'ST';
  'ST';
  'ST';
  'ST';
  'ST';
  'PV';
  'PV';
  'PV';
  'PV';
  'PV';
  'PV';
  'PV';
  'PV';
  'PV';
  'PV';
  'PV';
  'PV';
  'PV';
  'PV';
  'WT';
  'WT';
  'WT';
  'WT';
  'WT';
};

%% generator fuel type (see GENFUELS); use wind, solar, hydro, nuclear, ng, coal
mpc.genfuel = {
  'ng';
  'ng';
  'ng';
  'ng';
  'ng';
  'ng';
  'ng';
  'ng';
  'ng';
  'ng';
  'ng';
  'ng';
  'ng';
  'ng';
  'ng';
  'ng';
  'ng';
  'ng';
  'ng';
  'ng';
  'ng';
  'ng';
  'ng';
  'ng';
  'ng';
  'ng';
  'ng';
  'ng';
  'ng';
  'ng';
  'ng';
  'ng';
  'ng';
  'ng';
  'ng';
  'ng';
  'ng';
  'ng';
  'ng';
  'ng';
  'ng';
  'ng';
  'ng';
  'ng';
  'ng';
  'ng';
  'ng';
  'ng';
  'ng';
  'ng';
  'ng';
  'ng';
  'ng';
  'ng';
  'ng';
  'ng';
  'solar';
  'solar';
  'solar';
  'solar';
  'solar';
  'solar';
  'solar';
  'solar';
  'solar';
  'solar';
  'solar';
  'solar';
  'solar';
  'solar';
  'wind';
  'wind';
  'wind';
  'wind';
  'wind';
};

%% bus names
mpc.bus_name = {
  '1';
  '2';
  '3';
  '4';
  '5';
  '6';
  '7';
  '8';
  '9';
  '10';
  '11';
  '12';
  '13';
  '14';
  '15';
  '16';
  '17';
  '18';
  '19';
  '20';
  '21';
  '22';
  '23';
  '24';
  '25';
  '26';
  '27';
  '28';
  '29';
  '30';
  '31';
  '32';
  '33';
  '34';
  '35';
  '36';
  '37';
  '38';
  '39';
  '40';
  '41';
  '42';
  '43';
  '44';
  '45';
  '46';
  '47';
  '48';
  '49';
  '50';
  '51';
  '52';
  '53';
  '54';
  '55';
  '56';
  '57';
  '58';
  '59';
  '60';
  '61';
  '62';
  '63';
  '64';
  '65';
  '66';
  '67';
  '68';
  '69';
  '70';
  '71';
  '72';
  '73';
  '74';
  '75';
  '76';
  '77';
  '78';
  '79';
  '80';
  '81';
  '82';
  '83';
  '84';
  '85';
  '86';
  '87';
  '88';
  '89';
  '90';
  '91';
  '92';
  '93';
  '94';
  '95';
  '96';
  '97';
  '98';
  '99';
  '100';
  '101';
  '102';
  '103';
  '104';
  '105';
  '106';
  '107';
  '108';
  '109';
  '110';
  '111';
  '112';
  '113';
  '114';
  '115';
  '116';
  '117';
  '118';
  '119';
  '120';
  '121';
  '122';
  '123';
  '124';
  '125';
  '126';
  '127';
  '128';
  '129';
  '130';
  '131';
  '132';
  '133';
  '134';
  '135';
  '136';
  '137';
  '138';
  '139';
  '140';
  '141';
  '142';
  '143';
  '144';
  '145';
  '146';
  '147';
  '148';
  '149';
  '150';
  '151';
  '152';
  '153';
  '154';
  '155';
  '156';
  '157';
  '158';
  '159';
  '160';
  '161';
  '162';
  '163';
  '164';
  '165';
  '166';
  '167';
  '168';
  '169';
  '170';
  '171';
  '172';
  '173';
  '174';
  '175';
  '176';
  '177';
  '178';
  '179';
  '180';
  '181';
  '182';
  '183';
  '184';
  '185';
  '186';
  '187';
  '188';
  '189';
  '190';
  '191';
  '192';
  '193';
};

%% bus ids
mpc.bus_id = {
  '27853610-B4B4-4896-9156-F068CC6F3C41';
  'DB17FA1E-4C06-4979-9DC7-8A0B446AD712';
  '30C7B932-36BB-42C8-9BED-44072759A8CA';
  '2E65B331-D95A-494F-A26B-5D9B0B3ED4E5';
  'A2CD9DEF-F339-4260-9D1C-18228C7B1B28';
  '6C7523EE-785B-429E-850F-CABFE5D33AF5';
  'AEEEBC4C-0AEC-4F52-A400-CCE5FAD28FC6';
  '074DAD71-0F71-4565-AD94-EBD4C3AD40D6';
  '5A880B83-D621-4436-9663-44A7452ED909';
  '2D043FF1-406D-4CED-982A-76217FB45745';
  '851139CA-C7B7-4E9D-87E0-0F65192D78D0';
  'D8E901A6-D115-443F-966F-86978DA79F41';
  '01DD70D7-1101-417D-9301-5F15252519D5';
  'C6E2A26D-9DAA-417B-ABC5-B6741FB6F2A6';
  '0960EF82-D800-49EE-89B7-C3D7C4A328FB';
  '18961801-9D07-4D25-93E3-2A8CB866B49D';
  '34B76E51-B7B8-463F-8C29-CB7155105B74';
  '0C36B18C-8460-4AB5-BE01-F1A9725F7750';
  '77F45203-9149-464D-B4EB-7CD78CE8514A';
  'FCE91F21-D3C5-4FBA-B54B-FBD6B76F73F7';
  '97C59173-F37B-43C2-918C-258C5CE92460';
  '3E5202E6-4EB3-44D9-BA80-7D920083F62C';
  '7E2C958D-EFC3-4EB3-B622-B6049DFE0F2E';
  '7ACB1FEB-4EE6-4BC5-817E-4D74D2338003';
  '0714FE46-4245-46B0-A912-CEF95F283492';
  '31AEF46D-1008-4004-874C-FF67ECD8C4EC';
  'E39441DB-CA45-46EA-B90C-9C8030BF41ED';
  '209ADEDC-536B-4687-89D3-7051B272F319';
  '2BE1FD98-90FF-4B9E-9B29-C2259BAFA511';
  'E831340A-31F5-46AD-8F68-2CE3C706C106';
  '91B8A157-68CB-489F-9E14-A59C6776A000';
  'E2773AC8-47FE-42A0-97F4-799E366CB038';
  '41AF1AFE-B4AE-4CC1-A3E0-D6314EBAB681';
  'E8D30B73-D879-46F9-8FC1-9C5FB824D043';
  '1ECA0F0B-4BED-4019-AEBE-C5B0BCB1F578';
  'E9974592-33C7-4BF6-AE6F-05D7E3C68761';
  '509CAC7B-DC02-491E-A70F-F598020F6CF3';
  'C51BDCBE-A3B9-4196-BF0C-5856B9DAD216';
  '9C83A8E3-2541-4BAE-9E8F-851255D449D5';
  'B9DFB02A-3D50-4374-9F5D-84573B20A1D5';
  '324DA15C-891F-4372-B016-B4125A295B35';
  '8437DFEF-68D9-4BFF-AA7B-EBA864F79C36';
  'F1BC13A2-B01A-405B-9B1A-E0BE7B447C2F';
  '2041413B-3BB7-4124-B6D9-CE6A9DDDDED3';
  'D6C6DD4F-36ED-4C67-9D75-050E3BD93637';
  '043F1C1A-D23E-44F5-83E0-A4A3558D3892';
  'C7FA8380-87E7-4C58-AFA0-8B2FD475ACB3';
  '7AA5117E-EAC5-4ABE-BD3F-89A0BFB2D679';
  '686B1CD1-21E6-40AC-A05B-7C65A71F6C83';
  '189D5CE3-975E-4B00-9E06-7F8DF3CF0F11';
  'C06FA1DE-8EF2-49EA-B780-8744352D55AE';
  '1F0431FD-AE3A-4E13-9BCE-1BC6B8CE1A69';
  'F59B21FA-7BF2-4B5F-9E4E-5D367D0ADC89';
  'AA0DAB76-3586-4362-9D36-8AD2DAF73494';
  '2F9554EB-4337-489B-ADC0-73192F236790';
  '651B79E5-9C01-40ED-BE3F-BD5F4821840F';
  '12C436BC-F0C7-4585-A312-8992B47E483F';
  'B26E1176-16F4-40E7-ABBB-F05D18E3770B';
  '7D23EFEF-9560-4034-A9C4-298F6B8FC70D';
  'EABC958B-8F75-4774-BB51-C1F6DB859135';
  '03BDD171-2042-4E30-AE24-226D4D048B4F';
  'C8F12AB1-3F23-40FE-AB0A-E100FF5C39D6';
  '45861E66-50EC-4DB0-B8CC-B5CA72FEE053';
  'DFD79262-86EE-494A-ACEA-4CE448E18715';
  '4D002654-B2B4-42C9-81EC-917184A8659E';
  '0669852C-2576-4F88-A164-23F0E16EBE6F';
  '6B0332DF-9B96-42BB-BF68-E1919895AFDB';
  'A45C8A67-0F2E-4DDB-9E1E-F2A8CBA0FB22';
  'E4C6346D-936F-4437-A7B6-F700BC3CCCAC';
  'D647434F-8A3B-43F5-AD5E-253C8735CF97';
  'D0A10CC7-D8AD-4215-8E4B-3C1AD7A5CA6E';
  '3BEB2147-E83B-45AE-9D68-023B21ACFBB8';
  'E57064EF-43BD-4690-B668-88E86D2E3E3A';
  '2FD31260-7878-4153-825C-1A09B9ED013C';
  'A51C2AAB-0336-4E17-84CA-1951ADCF5474';
  '510DD78E-7A28-432F-B3CD-68A43876AB83';
  'FFD2DC87-5D13-401D-AA71-7774E44B88C5';
  '1588A7B3-52C6-42A0-9986-A2CFDB61D821';
  '95B19311-F051-4E6F-A3E8-812C0A0D9215';
  '5409CFF5-B309-4904-81EE-0C66277B03D6';
  'A250909E-6E48-4D34-9B4B-4E138B35A804';
  'B5F5DE6C-0F4A-424A-9649-65E4BAD10FAE';
  '4840567B-8B2E-40E6-BC12-81D00D9E534E';
  '8CFF3204-84BC-40A4-87CF-8B45321BFEFA';
  '8F461F97-D688-40A1-BB9C-E3987167260E';
  'F71B99F1-C168-4CCC-808F-D0534E06E45C';
  '890468B2-A06F-4ACD-89BD-5C39434ED2BB';
  'B2FB721B-900A-45BF-9B1A-57C95DE911C1';
  'B4909CAB-3D03-4CA0-B55E-FBDC132F9049';
  '9A0C592D-3424-4EA2-96CB-98FE1BEBA52C';
  '8DFC5E82-6987-4CDC-A143-210F22564C8D';
  'CA8C8DF4-5567-4570-BA34-517016674637';
  '65259240-DA2E-492B-8804-CAC2A970142E';
  '092E07AF-91C3-41DF-8E56-E76EC94CCB4C';
  '4B744D65-35F8-4DDB-B554-AAAE115A6927';
  '76DB6EFA-D4BA-4CD9-B934-26CB5015C39E';
  'A3CB96EE-DB99-4A6E-A8B2-E8C8C79DFE70';
  '510B8BF8-A411-4267-B6B2-A84E438751CD';
  '4B1B751D-931A-4F88-9C71-C7F566B3E7B0';
  '995BA03C-32EE-429D-8AC8-CF3E7B04833D';
  '20F4F03F-E253-4956-8E48-6C4640C094E8';
  'AC2C5DBB-AA95-4E34-B549-ABBB1C46A0B4';
  '32FE0EF3-62F6-459B-9E22-CAC689DEEF75';
  'E5590BDA-6BDB-4B8A-88A6-62A522A76002';
  '57BF892F-264B-43D0-A8E0-6B5F62C0562F';
  '7F2219A4-4C74-423F-BADF-48B38456F68D';
  '2B26B191-1683-4804-B190-47A32A1C8741';
  'EBB59E5E-7434-4E4E-9EC0-7C0A3ECCD621';
  '3ED69350-4197-40A2-801D-C1FD01346C37';
  'C7F5FB6B-9828-41BE-9A48-5A7F32F2F710';
  'ABBE7701-3127-4792-8C25-DD221167F071';
  'A8E68101-C6C6-40D1-A91A-A1DBD3BC1140';
  '140A96A2-DC1A-4DFC-B51D-96AEFA18E90D';
  '30D7BFF6-FC46-415B-B99C-56364A485FB6';
  'A536F263-AA7D-4768-9CE4-1E62EAED00FD';
  '74681864-BC8D-476F-A8DC-DAE61BE752CE';
  '501C2E7C-0F1F-47CF-9079-957CD8F0A577';
  'F8EE60F6-4661-47BE-9517-BDCF32752F70';
  '203C3FAD-8AA4-42CC-BF97-8FD9E9A63C0C';
  '3B79813D-3949-4405-8970-753D8E9C54DD';
  '360B9B5C-AA0F-4645-B2CD-EB206B407DC8';
  '14D7CD96-E2E7-4DBC-A558-DE159A21ACCC';
  'EC2E4BF2-6C48-413A-9A21-FDCFC5326559';
  '697F9013-B904-405F-86D9-8F3BC0F1990B';
  'C9C8744B-3E07-4208-904F-7ADBF3827C05';
  '216D6B0E-2306-4EB1-97A8-09F387F0AC90';
  'FFEAC9B2-BFA8-4077-8E8E-5C390E18DB8C';
  'A74D7496-813B-4F28-B09F-A6A274701B24';
  '62470EDD-3C17-4336-83E0-2B94FA6D2182';
  '9D4A195A-7AF4-415D-B55E-5D3665842E46';
  '7AE43335-8225-455D-B3C4-EA108A8AFB2B';
  'C4A1E10B-4B14-492C-AD81-9D84BF186DC8';
  '72A50108-1242-4D3E-8987-3FA8433BFE91';
  '8A2DDCFF-805F-40FD-88AB-1BF1E752DF98';
  '49C0544D-452E-42C3-97A9-202D0BA43969';
  '5B05EA35-CC73-416F-881F-EC624AD50C77';
  'BE0231E9-1ADD-4B71-8AAD-FFB7E584B494';
  '638973B4-A4D2-4E73-9264-3682F9D321A0';
  'ABDE259A-7608-45DE-9006-F0C7A0E755A0';
  '0FCDFEB5-4C9E-47F0-9FBB-4F3E1D8A6CA9';
  'D8011774-950E-4A18-BFFD-C638E4D60BA6';
  '09500BDB-1C78-43D9-9AD6-DB6A665135D4';
  'D9D84DC9-3C17-4186-8CE0-45C62EF5EDE8';
  '8D3345D9-E18E-4CFF-85BC-BCEDAE4F1E14';
  '768C9A60-CA63-4649-92F7-BA595D68B8FC';
  'E709E8F9-AE38-4A89-AD48-3044CCEA1963';
  'E684D319-A57C-4FF9-95A7-5C92115EF8A2';
  'EA8D77D7-0221-4646-908D-FE2E127FAE35';
  '02CE8ED4-00A8-4078-B4AC-DD28915087B8';
  'DAA0066C-3EDB-4498-929B-0B0F0D8E12FD';
  '9D63E2C2-6E35-4319-B0CA-A781AE7857D1';
  'B9C88563-B06E-4141-BEF3-7B819D784226';
  '0B6067E0-8B01-4BF2-9577-16F93EB10DAA';
  'D889D2DC-4E85-4E24-97EB-D7303255F0B5';
  '6F33F207-5DBD-467D-8DE4-8D37B4E615DE';
  '9F53B8F5-4883-4409-B6AC-F29DB6603565';
  'D216025C-AB98-416F-8521-0F54ED29A61F';
  'FE0885F0-E134-4BBE-AA54-1747F5054049';
  'E1AC9427-5D80-4AA2-87CD-40BC030388FD';
  '79BADDF4-516D-40C6-A7EA-A3848EC788B3';
  '08CC33E3-30A1-4810-86DF-E5BCB1766499';
  '21211A63-6772-4F25-A406-7E27D2BE3507';
  '3DC62CFD-3FE0-4C87-B49D-4B090C724E3F';
  '13E0B318-149F-4FBD-9A40-E8B1ED560A2F';
  'ED4A70E7-1169-4F7B-8508-C32469E01CC0';
  '5C7DF74D-76E9-4C05-8AD7-AB414D704183';
  '5C74704E-E0B3-4130-AFC3-929FAB875530';
  '78178EB2-515C-40C1-9EF5-D93C1915B736';
  '678CF40F-A28F-4813-A9E7-C7DAD6E698B0';
  '944A1E0F-5E11-4848-A348-E55125A54460';
  'F9752C1D-A718-4D8A-A740-D3E2332654D9';
  'D99E5D0B-8D72-4E45-BCA1-813BC1F07349';
  'B7799787-5209-4FE7-88C5-55BD9B4B95A0';
  '7DCDDED9-AB17-4F5F-9B4D-47118B52349C';
  '8DE9F12C-9BE6-4498-8754-24E6C943F9F4';
  '48CF6A2A-59CD-46E4-AF19-88A52D313796';
  '5140BAF6-AE26-4F22-93D8-646A1BDB1460';
  'AD5E3B9C-BAE2-436B-ACBD-517BF90BB2CB';
  '3FD3F065-4DF7-480C-ACAF-1D30382A7422';
  'C0564AC0-8411-4769-B737-6B7FE904B99D';
  'D82EB6B3-0AB9-4492-97A5-27B1C4F0DF99';
  '6DB5286A-2890-4B4F-8561-E13F4E91F04E';
  '0B62EC6E-7FF2-4E9B-8F90-BC414A9F2C3D';
  'B7D4C1AA-2307-4F6A-83B1-DA9BC4130485';
  'F6248BB9-8BDA-4C1B-8D68-46487E9209D6';
  '77068F76-B8E8-49E0-A76D-1EB981237BD7';
  '77056770-4E87-43AE-A4B7-80EF67FEDE1B';
  '84CE4EC4-55E3-4A5C-AD8D-06A7BDC8848E';
  'D878B1C6-9388-4B7F-AF4E-56B7CC00D17B';
  'ADCBC5D8-53F7-4E4A-8AFB-1CB511D17E70';
  '0656B6F9-F282-42DD-B24B-AD5F46F79913';
  '5FFAEBAC-6082-4A8F-B9E1-E3934A37BEF7';
  '85381297-51EA-4EBF-9D37-F0BA9D2E1ED8';
};

%% gen t1 ids
mpc.gen_t1_id = {
  '0E9038BC-5B4F-4C8F-9795-0C1FC72DCB26_1';
  '528CF7FE-578F-461A-80D4-CFED9E218EED_1';
  '80FBE81B-488A-4D84-A875-9483476135CE_1';
  '4E1DDD04-5A92-43BC-BBAA-8989DBAB23FE_1';
  '0BD59E90-C996-4231-A81D-61C1F19E5F5E_1';
  'A45C7B95-B2F7-479C-8555-4FE283AF6A82_1';
  'C0B25540-B246-47CF-BBF1-EEBBEBAB84B3_1';
  'F0294F90-8F76-475F-A153-99A496EB1104_1';
  '98575173-38C4-4D81-8CE5-9879CCEF798E_1';
  '28F84FCF-7B8A-4FDC-8B99-130FF1A87459_1';
  'A0A0EB04-206C-4116-9F60-A242B72A1A64_1';
  '8322A72F-C9BC-4D17-9B71-CCD31CC40C63_1';
  '10F443FC-3AA3-4E4C-AF2B-B4468CEB5F02_1';
  '21664FE9-4F84-426D-902B-90E49BD32EEB_1';
  'DC268E02-78BF-4B3C-8FF9-3BCD64EB79C0_1';
  '507850DB-50C8-4CA0-B4FF-88FB3A068A4F_1';
  '51D0DCE1-77A3-47FE-9C70-3A2F8218AE9A_1';
  'F6BDBAB5-02F5-45AA-A5ED-2B7BAC736D9A_1';
  'D7C4AAA7-F306-4042-B087-5C5DFFAA19D7_1';
  '09476EF9-B8FF-488C-B290-64FC72D51B45_1';
  'A639109F-EFB6-4D0A-B91C-17BC3F77A80C_1';
  'C1320B82-E71E-4FD6-81C6-E07DBA1A3C66_1';
  'E2AD00B3-7F2B-4E49-919F-22ED7C96C481_1';
  '9F87A332-8145-4C32-80F3-ABA97BB99E09_1';
  'A97623CB-71BF-4FAC-8CC0-2BD78847A747_1';
  '33240597-44EB-4B8B-9B0A-30B06149975C_1';
  'F249BB0A-C51B-4AD0-A6B6-33338B0A7346_1';
  'EE562B0E-CBD6-45B6-AD24-DE9F525A5B59_1';
...